data_Nbss
_audit_creation_date              2022-03-30
_audit_creation_method            'Materials Studio'
_symmetry_space_group_name_H-M    'P1'
_symmetry_Int_Tables_number       1
_symmetry_cell_setting            triclinic
loop_
_symmetry_equiv_pos_as_xyz
  x,y,z
_cell_length_a                    6.6012
_cell_length_b                    6.6012
_cell_length_c                    6.6012
_cell_angle_alpha                 90.0000
_cell_angle_beta                  90.0000
_cell_angle_gamma                 90.0000
loop_
_atom_site_label
_atom_site_type_symbol
_atom_site_fract_x
_atom_site_fract_y
_atom_site_fract_z
_atom_site_U_iso_or_equiv
_atom_site_adp_type
_atom_site_occupancy
Nb1    Nb    0.00000   0.00000   0.00000   0.01267  Uiso   1.00
Nb2    Nb    0.25000   0.25000   0.25000   0.01267  Uiso   1.00
Nb3    Nb    0.50000   0.00000   0.00000   0.01267  Uiso   1.00
Nb4    Nb    0.75000   0.25000   0.25000   0.01267  Uiso   1.00
Nb5    Nb    0.00000   0.50000   0.00000   0.01267  Uiso   1.00
Nb6    Nb    0.25000   0.75000   0.25000   0.01267  Uiso   1.00
Nb7    Nb    0.50000   0.50000   0.00000   0.01267  Uiso   1.00
Nb8    Nb    0.75000   0.75000   0.25000   0.01267  Uiso   1.00
Nb9    Nb    0.00000   0.00000   0.50000   0.01267  Uiso   1.00
Nb10   Nb    0.25000   0.25000   0.75000   0.01267  Uiso   1.00
Nb11   Nb    0.50000   0.00000   0.50000   0.01267  Uiso   1.00
Nb12   Nb    0.75000   0.25000   0.75000   0.01267  Uiso   1.00
Nb13   Nb    0.00000   0.50000   0.50000   0.01267  Uiso   1.00
Nb14   Nb    0.25000   0.75000   0.75000   0.01267  Uiso   1.00
Nb15   Nb    0.75000   0.75000   0.75000   0.01267  Uiso   1.00
Nb     Nb    0.50000   0.50000   0.50000   0.00000  Uiso   1.00

loop_
_geom_bond_atom_site_label_1
_geom_bond_atom_site_label_2
_geom_bond_distance
_geom_bond_site_symmetry_2
_ccdc_geom_bond_type
Nb2    Nb      2.858   .     S
Nb4    Nb      2.858   .     S
Nb6    Nb      2.858   .     S
Nb8    Nb      2.858   .     S
Nb10   Nb      2.858   .     S
Nb12   Nb      2.858   .     S
Nb14   Nb      2.858   .     S
Nb15   Nb      2.858   .     S
