data_t-YSZ-Al-5%-Vo
_audit_creation_date              2022-06-18
_audit_creation_method            'Materials Studio'
_symmetry_space_group_name_H-M    'PM'
_symmetry_Int_Tables_number       6
_symmetry_cell_setting            monoclinic
loop_
_symmetry_equiv_pos_as_xyz
  x,y,z
  x,-y,z
_cell_length_a                    7.2180
_cell_length_b                    7.2180
_cell_length_c                    15.4473
_cell_angle_alpha                 90.0000
_cell_angle_beta                  90.0000
_cell_angle_gamma                 90.0000
loop_
_atom_site_label
_atom_site_type_symbol
_atom_site_fract_x
_atom_site_fract_y
_atom_site_fract_z
_atom_site_U_iso_or_equiv
_atom_site_adp_type
_atom_site_occupancy
O1     O     0.26418  -0.24023   0.10308   0.00000  Uiso   1.00
O2     O     0.26385  -0.26424   0.26710   0.00000  Uiso   1.00
Zr3    Zr   -0.01350  -0.25099   0.00181   0.00000  Uiso   1.00
O4     O     0.75973  -0.28212   0.09252   0.00000  Uiso   1.00
O5     O     0.75688  -0.25751   0.27116   0.00000  Uiso   1.00
Zr6    Zr    0.48973  -0.25251   0.00060   0.00000  Uiso   1.00
O7     O     0.24044  -0.28189   0.43016   0.00000  Uiso   1.00
O8     O     0.28872  -0.20011   0.58853   0.00000  Uiso   1.00
Zr9    Zr    0.01535  -0.25107   0.33050   0.00000  Uiso   1.00
O10    O     0.76371  -0.22126   0.43610   0.00000  Uiso   1.00
O11    O     0.71640  -0.30722   0.59763   0.00000  Uiso   1.00
Zr12   Zr    0.50782  -0.25091   0.33892   0.00000  Uiso   1.00
O13    O     0.23546  -0.22492   0.75277   0.00000  Uiso   1.00
O14    O     0.23998  -0.24209   0.93377   0.00000  Uiso   1.00
Zr15   Zr   -0.01754  -0.24724   0.66604   0.00000  Uiso   1.00
O16    O     0.74822  -0.25697   0.76430   0.00000  Uiso   1.00
O17    O     0.73820  -0.22390   0.93184   0.00000  Uiso   1.00
Zr18   Zr    0.49119  -0.24908   0.67247   0.00000  Uiso   1.00
O19    O     0.01139   0.00000   0.06669   0.00000  Uiso   1.00
O20    O     0.03287   0.00000   0.24673   0.00000  Uiso   1.00
Zr21   Zr    0.26647   0.00000   0.17201   0.00000  Uiso   1.00
O22    O     0.50893   0.00000   0.06525   0.00000  Uiso   1.00
O23    O     0.49129   0.00000   0.25419   0.00000  Uiso   1.00
Y24    Y     0.75791   0.00000   0.16697   0.00000  Uiso   1.00
O25    O     0.03036   0.00000   0.40470   0.00000  Uiso   1.00
O26    O    -0.04014   0.00000   0.56908   0.00000  Uiso   1.00
Zr27   Zr    0.24434   0.00000   0.49421   0.00000  Uiso   1.00
O28    O     0.47582   0.00000   0.41823   0.00000  Uiso   1.00
Al29   Al    0.81876   0.00000   0.47489   0.00000  Uiso   1.00
O30    O    -0.02583   0.00000   0.73278   0.00000  Uiso   1.00
O31    O    -0.00802   0.00000   0.90249   0.00000  Uiso   1.00
Zr32   Zr    0.22797   0.00000   0.83583   0.00000  Uiso   1.00
O33    O     0.53848   0.00000   0.72072   0.00000  Uiso   1.00
O34    O     0.48136   0.00000   0.89143   0.00000  Uiso   1.00
Zr35   Zr    0.74109   0.00000   0.83814   0.00000  Uiso   1.00
O36    O     0.04188   0.50000   0.06666   0.00000  Uiso   1.00
O37    O     0.00821   0.50000   0.23686   0.00000  Uiso   1.00
Zr38   Zr    0.25849   0.50000   0.16273   0.00000  Uiso   1.00
O39    O     0.48437   0.50000   0.07128   0.00000  Uiso   1.00
O40    O     0.51050   0.50000   0.24473   0.00000  Uiso   1.00
Zr41   Zr    0.75135   0.50000   0.17462   0.00000  Uiso   1.00
O42    O    -0.02580   0.50000   0.40126   0.00000  Uiso   1.00
O43    O     0.03847   0.50000   0.56605   0.00000  Uiso   1.00
Al44   Al    0.18322   0.50000   0.47406   0.00000  Uiso   1.00
O45    O     0.53601   0.50000   0.41451   0.00000  Uiso   1.00
Zr46   Zr    0.76241   0.50000   0.49429   0.00000  Uiso   1.00
O47    O    -0.01384   0.50000   0.72871   0.00000  Uiso   1.00
O48    O    -0.04098   0.50000   0.91108   0.00000  Uiso   1.00
Y49    Y     0.23443   0.50000   0.83445   0.00000  Uiso   1.00
O50    O     0.48464   0.50000   0.72853   0.00000  Uiso   1.00
O51    O     0.51505   0.50000   0.90944   0.00000  Uiso   1.00
Zr52   Zr    0.74089   0.50000   0.83307   0.00000  Uiso   1.00
loop_
_geom_bond_atom_site_label_1
_geom_bond_atom_site_label_2
_geom_bond_distance
_geom_bond_site_symmetry_2
_ccdc_geom_bond_type
O1     Zr38    2.090   1_545 S
O1     Zr21    2.035   .     S
O1     Zr3     2.544   .     S
O1     Zr6     2.273   .     S
O2     Zr9     2.046   .     S
O2     Zr12    2.084   .     S
O2     Zr21    2.407   .     S
O2     Zr38    2.344   1_545 S
Zr3    O19     2.078   .     S
Zr3    O36     2.096   1_545 S
Zr3    O14     2.111   1_554 S
Zr3    O17     2.102   1_454 S
Zr3    O4      2.166   1_455 S
Zr3    O31     2.374   1_554 S
Zr3    O48     2.288   1_544 S
O4     Zr41    2.021   1_545 S
O4     Y24     2.339   .     S
O4     Zr6     2.421   .     S
O4     Zr3     2.166   1_655 S
O5     Zr12    2.081   .     S
O5     Zr9     2.079   1_655 S
O5     Y24     2.459   .     S
O5     Zr41    2.300   1_545 S
Zr6    O22     2.083   .     S
Zr6    O39     2.094   1_545 S
Zr6    O17     2.095   1_554 S
Zr6    O14     2.079   1_554 S
Zr6    O34     2.484   1_554 S
Zr6    O51     2.282   1_544 S
O7     Al44    1.763   1_545 S
O7     Zr27    2.263   .     S
O7     Zr9     2.249   .     S
O7     Zr12    2.400   .     S
O8     Zr15    2.537   .     S
O8     Zr18    1.985   .     S
O8     Zr27    2.076   .     S
O8     Al44    2.897   1_545 S
Zr9    O25     2.147   .     S
Zr9    O42     2.124   1_545 S
Zr9    O5      2.079   1_455 S
Zr9    O10     2.451   1_455 S
Zr9    O20     2.230   .     S
Zr9    O37     2.307   1_545 S
O10    Zr46    2.204   1_545 S
O10    Al29    1.751   .     S
O10    Zr12    2.390   .     S
O10    Zr9     2.451   1_655 S
O11    Zr18    2.038   .     S
O11    Zr15    2.234   1_655 S
O11    Al29    3.010   .     S
O11    Zr46    2.144   1_545 S
Zr12   O28     2.199   .     S
Zr12   O45     2.153   1_545 S
Zr12   O23     2.238   .     S
Zr12   O40     2.313   1_545 S
O13    Y49     2.352   1_545 S
O13    Zr32    2.070   .     S
O13    Zr15    2.271   .     S
O13    Zr18    2.231   .     S
O14    Zr3     2.111   1_556 S
O14    Zr6     2.079   1_556 S
O14    Zr32    2.313   .     S
O14    Y49     2.413   1_545 S
Zr15   O30     2.062   .     S
Zr15   O47     2.066   1_545 S
Zr15   O11     2.234   1_455 S
Zr15   O16     2.273   1_455 S
Zr15   O26     2.336   .     S
Zr15   O43     2.424   1_545 S
O16    Zr52    2.052   1_545 S
O16    Zr35    2.178   .     S
O16    Zr18    2.336   .     S
O16    Zr15    2.273   1_655 S
O17    Zr6     2.095   1_556 S
O17    Zr3     2.102   1_656 S
O17    Zr35    2.170   .     S
O17    Zr52    2.510   1_545 S
Zr18   O33     1.976   .     S
Zr18   O50     2.008   1_545 S
O19    Zr3     2.078   2     S
O19    Zr21    2.457   .     S
O19    Y24     2.397   1_455 S
O20    Zr21    2.043   .     S
O20    Y24     2.336   1_455 S
O20    Zr9     2.230   2     S
Zr21   O23     2.060   .     S
Zr21   O1      2.035   2     S
Zr21   O2      2.407   2     S
Zr21   O22     2.405   .     S
O22    Zr6     2.083   2     S
O22    Y24     2.387   .     S
O23    Y24     2.349   .     S
O23    Zr12    2.238   2     S
Y24    O20     2.336   1_655 S
Y24    O4      2.339   2     S
Y24    O5      2.459   2     S
Y24    O19     2.397   1_655 S
O25    Zr9     2.147   2     S
O25    Zr27    2.073   .     S
O25    Al29    1.873   1_455 S
O26    Zr27    2.357   .     S
O26    Al29    1.776   1_455 S
O26    Zr15    2.336   2     S
Zr27   O7      2.263   2     S
Zr27   O8      2.076   2     S
Zr27   O28     2.042   .     S
O28    Zr12    2.199   2     S
O28    Al29    2.626   .     S
Al29   O26     1.776   1_655 S
Al29   O10     1.751   2     S
Al29   O11     3.010   2     S
Al29   O25     1.873   1_655 S
O30    Zr15    2.062   2     S
O30    Zr32    2.427   .     S
O30    Zr35    2.341   1_455 S
O31    Zr32    1.990   .     S
O31    Zr35    2.066   1_455 S
O31    Zr3     2.374   2_556 S
O31    Zr3     2.374   1_556 S
Zr32   O34     2.021   .     S
Zr32   O13     2.070   2     S
Zr32   O14     2.313   2     S
Zr32   O33     2.861   .     S
O33    Zr18    1.976   2     S
O33    Zr35    2.330   .     S
O34    Zr35    2.047   .     S
O34    Zr6     2.484   2_556 S
O34    Zr6     2.484   1_556 S
Zr35   O31     2.066   1_655 S
Zr35   O16     2.178   2     S
Zr35   O17     2.170   2     S
Zr35   O30     2.341   1_655 S
O36    Zr3     2.096   2     S
O36    Zr3     2.096   1_565 S
O36    Zr38    2.156   .     S
O36    Zr41    2.679   1_455 S
O37    Zr38    2.139   .     S
O37    Zr41    2.088   1_455 S
O37    Zr9     2.307   1_565 S
O37    Zr9     2.307   2     S
Zr38   O40     2.217   .     S
Zr38   O1      2.090   1_565 S
Zr38   O1      2.090   2     S
Zr38   O2      2.344   1_565 S
Zr38   O2      2.344   2     S
Zr38   O39     2.157   .     S
O39    Zr6     2.094   2     S
O39    Zr6     2.094   1_565 S
O39    Zr41    2.502   .     S
O40    Zr41    2.048   .     S
O40    Zr12    2.313   1_565 S
O40    Zr12    2.313   2     S
Zr41   O37     2.088   1_655 S
Zr41   O4      2.021   1_565 S
Zr41   O4      2.021   2     S
Zr41   O5      2.300   1_565 S
Zr41   O5      2.300   2     S
Zr41   O36     2.679   1_655 S
O42    Zr9     2.124   2     S
O42    Zr9     2.124   1_565 S
O42    Al44    1.882   .     S
O42    Zr46    2.098   1_455 S
O43    Al44    1.764   .     S
O43    Zr46    2.280   1_455 S
O43    Zr15    2.424   1_565 S
O43    Zr15    2.424   2     S
Al44   O7      1.763   1_565 S
Al44   O7      1.763   2     S
Al44   O8      2.897   1_565 S
Al44   O8      2.897   2     S
Al44   O45     2.708   .     S
O45    Zr12    2.153   2     S
O45    Zr12    2.153   1_565 S
O45    Zr46    2.047   .     S
Zr46   O43     2.280   1_655 S
Zr46   O10     2.204   1_565 S
Zr46   O10     2.204   2     S
Zr46   O11     2.144   1_565 S
Zr46   O11     2.144   2     S
Zr46   O42     2.098   1_655 S
O47    Zr15    2.066   2     S
O47    Zr15    2.066   1_565 S
O47    Y49     2.425   .     S
O47    Zr52    2.394   1_455 S
O48    Y49     2.314   .     S
O48    Zr52    1.983   1_455 S
O48    Zr3     2.288   1_566 S
O48    Zr3     2.288   2_556 S
Y49    O51     2.333   .     S
Y49    O13     2.352   1_565 S
Y49    O13     2.352   2     S
Y49    O14     2.413   1_565 S
Y49    O14     2.413   2     S
Y49    O50     2.437   .     S
O50    Zr18    2.008   2     S
O50    Zr18    2.008   1_565 S
O50    Zr52    2.455   .     S
O51    Zr52    2.012   .     S
O51    Zr6     2.282   1_566 S
O51    Zr6     2.282   2_556 S
Zr52   O48     1.983   1_655 S
Zr52   O16     2.052   1_565 S
Zr52   O16     2.052   2     S
Zr52   O17     2.510   1_565 S
Zr52   O17     2.510   2     S
Zr52   O47     2.394   1_655 S
