data_t-YSZ-4Ga-lattice-7Vo
_audit_creation_date              2022-06-18
_audit_creation_method            'Materials Studio'
_symmetry_space_group_name_H-M    'P1'
_symmetry_Int_Tables_number       1
_symmetry_cell_setting            triclinic
loop_
_symmetry_equiv_pos_as_xyz
  x,y,z
_cell_length_a                    7.2218
_cell_length_b                    7.2218
_cell_length_c                    15.4734
_cell_angle_alpha                 90.0000
_cell_angle_beta                  90.0000
_cell_angle_gamma                 90.0000
loop_
_atom_site_label
_atom_site_type_symbol
_atom_site_fract_x
_atom_site_fract_y
_atom_site_fract_z
_atom_site_U_iso_or_equiv
_atom_site_adp_type
_atom_site_occupancy
Zr1    Zr   -0.00882  -0.01712   0.00243   0.00000  Uiso   1.00
Zr2    Zr    0.25912   0.22279   0.15928   0.00000  Uiso   1.00
O3     O     0.03357   0.23863   0.07096   0.00000  Uiso   1.00
O4     O     0.05248   0.29120   0.25213   0.00000  Uiso   1.00
O5     O     0.26147  -0.03954   0.09912   0.00000  Uiso   1.00
O6     O     0.25764  -0.01440   0.25970   0.00000  Uiso   1.00
Zr7    Zr    0.48772  -0.01764   0.00147   0.00000  Uiso   1.00
Y8     Y     0.76020   0.25195   0.17923   0.00000  Uiso   1.00
O9     O     0.48860   0.23493   0.07136   0.00000  Uiso   1.00
O10    O     0.46565   0.28046   0.25567   0.00000  Uiso   1.00
O11    O     0.76474  -0.01497   0.09634   0.00000  Uiso   1.00
O12    O     0.76544  -0.02014   0.27011   0.00000  Uiso   1.00
Zr13   Zr   -0.01470   0.49042  -0.00134   0.00000  Uiso   1.00
Ga14   Ga    0.25370   0.73289   0.16727   0.00000  Uiso   1.00
O15    O    -0.00346   0.73361   0.06865   0.00000  Uiso   1.00
O16    O     0.02102   0.68251   0.23375   0.00000  Uiso   1.00
O17    O     0.26894   0.50217   0.10526   0.00000  Uiso   1.00
Zr18   Zr    0.49210   0.49256   0.00050   0.00000  Uiso   1.00
Zr19   Zr    0.76019   0.73696   0.15974   0.00000  Uiso   1.00
O20    O     0.53205   0.73855   0.06492   0.00000  Uiso   1.00
O21    O     0.50437   0.68131   0.22767   0.00000  Uiso   1.00
O22    O     0.75545   0.49056   0.08322   0.00000  Uiso   1.00
Zr23   Zr    0.02609   0.01600   0.33370   0.00000  Uiso   1.00
Ga24   Ga    0.25395   0.26789   0.49756   0.00000  Uiso   1.00
O25    O    -0.03906   0.24485   0.40720   0.00000  Uiso   1.00
O26    O     0.03878   0.27155   0.57216   0.00000  Uiso   1.00
O27    O     0.26698   0.05241   0.42963   0.00000  Uiso   1.00
O28    O     0.25975  -0.03357   0.59899   0.00000  Uiso   1.00
Zr29   Zr    0.50977   0.01873   0.33681   0.00000  Uiso   1.00
Zr30   Zr    0.74206   0.23684   0.49272   0.00000  Uiso   1.00
O31    O     0.48684   0.28459   0.56270   0.00000  Uiso   1.00
O32    O     0.70952  -0.01905   0.44016   0.00000  Uiso   1.00
O33    O     0.75636   0.04338   0.60247   0.00000  Uiso   1.00
Zr34   Zr   -0.02743   0.50805   0.34165   0.00000  Uiso   1.00
Zr35   Zr    0.25787   0.76665   0.49308   0.00000  Uiso   1.00
O36    O     0.03435   0.77064   0.39849   0.00000  Uiso   1.00
O37    O    -0.01735   0.71169   0.55747   0.00000  Uiso   1.00
O38    O     0.26372   0.47665   0.42535   0.00000  Uiso   1.00
Zr39   Zr    0.51706   0.51206   0.33626   0.00000  Uiso   1.00
Ga40   Ga    0.75508   0.75661   0.49993   0.00000  Uiso   1.00
O41    O     0.44213   0.76439   0.38827   0.00000  Uiso   1.00
O42    O     0.52685   0.71282   0.55700   0.00000  Uiso   1.00
O43    O     0.74086   0.52594   0.43435   0.00000  Uiso   1.00
Zr44   Zr    0.01211   0.05298   0.66833   0.00000  Uiso   1.00
Zr45   Zr    0.24123   0.23638   0.84186   0.00000  Uiso   1.00
O46    O     0.01646   0.29626   0.73729   0.00000  Uiso   1.00
O47    O    -0.01392   0.23228   0.90607   0.00000  Uiso   1.00
O48    O     0.23763   0.01881   0.75717   0.00000  Uiso   1.00
O49    O     0.24197   0.00433   0.93197   0.00000  Uiso   1.00
Zr50   Zr    0.50628   0.04216   0.66978   0.00000  Uiso   1.00
Ga51   Ga    0.74196   0.23251   0.85861   0.00000  Uiso   1.00
O52    O     0.45974   0.29150   0.73161   0.00000  Uiso   1.00
O53    O     0.49536   0.23511   0.90426   0.00000  Uiso   1.00
O54    O     0.73831   0.04546   0.76973   0.00000  Uiso   1.00
O55    O     0.74083  -0.00924   0.93319   0.00000  Uiso   1.00
Zr56   Zr    0.03805   0.52376   0.65493   0.00000  Uiso   1.00
Y57    Y     0.23841   0.73315   0.82479   0.00000  Uiso   1.00
O58    O    -0.04611   0.73831   0.73363   0.00000  Uiso   1.00
O59    O    -0.02530   0.74290   0.91017   0.00000  Uiso   1.00
O60    O     0.24093   0.47688   0.92900   0.00000  Uiso   1.00
Zr61   Zr    0.46177   0.52913   0.65466   0.00000  Uiso   1.00
Zr62   Zr    0.74101   0.78045   0.83917   0.00000  Uiso   1.00
O63    O     0.52529   0.75517   0.73155   0.00000  Uiso   1.00
O64    O     0.50426   0.73985   0.90751   0.00000  Uiso   1.00
O65    O     0.74214   0.48504   0.90820   0.00000  Uiso   1.00
loop_
_geom_bond_atom_site_label_1
_geom_bond_atom_site_label_2
_geom_bond_distance
_geom_bond_site_symmetry_2
_ccdc_geom_bond_type
Zr1    O3      2.152   .     S
Zr1    O15     2.072   1_545 S
Zr1    O49     2.120   1_554 S
Zr1    O55     2.102   1_454 S
Zr1    O47     2.339   1_554 S
Zr1    O59     2.249   1_544 S
Zr1    O5      2.465   .     S
Zr1    O11     2.188   1_455 S
Zr2    O4      2.130   .     S
Zr2    O10     2.150   .     S
Zr2    O17     2.185   .     S
Zr2    O5      2.111   .     S
Zr2    O3      2.129   .     S
Zr2    O9      2.146   .     S
Zr2    O6      2.313   .     S
O3     Zr13    2.163   .     S
O3     Y8      2.591   1_455 S
O4     Y8      2.410   1_455 S
O4     Zr34    2.169   .     S
O4     Zr23    2.362   .     S
O5     Ga14    1.954   1_545 S
O5     Zr7     2.231   .     S
O6     Zr23    2.039   .     S
O6     Zr29    2.190   .     S
O6     Ga14    2.319   1_545 S
Zr7    O9      2.120   .     S
Zr7    O20     2.041   1_545 S
Zr7    O55     2.112   1_554 S
Zr7    O49     2.081   1_554 S
Zr7    O53     2.366   1_554 S
Zr7    O64     2.279   1_544 S
Zr7    O11     2.481   .     S
Y8     O10     2.443   .     S
Y8     O4      2.410   1_655 S
Y8     O22     2.275   .     S
Y8     O11     2.316   .     S
Y8     O9      2.578   .     S
Y8     O3      2.591   1_655 S
Y8     O12     2.417   .     S
O9     Zr18    2.160   .     S
O10    Zr39    2.119   .     S
O10    Zr29    2.291   .     S
O11    Zr19    2.043   1_545 S
O11    Zr1     2.188   1_655 S
O12    Zr29    2.134   .     S
O12    Zr23    2.140   1_655 S
O12    Zr19    2.449   1_545 S
Zr13   O15     2.065   .     S
Zr13   O60     2.140   1_554 S
Zr13   O65     2.246   1_454 S
Zr13   O59     2.282   1_554 S
Zr13   O47     2.351   1_554 S
Zr13   O17     2.631   .     S
Zr13   O22     2.114   1_455 S
Ga14   O16     2.004   .     S
Ga14   O21     2.071   .     S
Ga14   O5      1.954   1_565 S
Ga14   O17     1.926   .     S
Ga14   O15     2.404   .     S
Ga14   O20     2.559   .     S
Ga14   O6      2.319   1_565 S
O15    Zr1     2.072   1_565 S
O15    Zr19    2.214   1_455 S
O16    Zr19    2.239   1_455 S
O16    Zr23    2.862   1_565 S
O16    Zr34    2.121   .     S
O17    Zr18    2.287   .     S
Zr18   O20     2.057   .     S
Zr18   O65     2.303   1_554 S
Zr18   O60     2.128   1_554 S
Zr18   O64     2.295   1_554 S
Zr18   O53     2.382   1_554 S
Zr18   O22     2.292   .     S
Zr19   O21     2.163   .     S
Zr19   O16     2.239   1_655 S
Zr19   O11     2.043   1_565 S
Zr19   O22     2.138   .     S
Zr19   O20     2.206   .     S
Zr19   O15     2.214   1_655 S
Zr19   O12     2.449   1_565 S
O20    Zr7     2.041   1_565 S
O21    Zr29    2.965   1_565 S
O21    Zr39    2.080   .     S
O22    Zr13    2.114   1_655 S
Zr23   O25     2.061   .     S
Zr23   O36     2.037   1_545 S
Zr23   O12     2.140   1_455 S
Zr23   O16     2.862   1_545 S
Zr23   O27     2.302   .     S
Zr23   O32     2.829   1_455 S
Ga24   O26     1.936   .     S
Ga24   O31     1.964   .     S
Ga24   O38     1.878   .     S
Ga24   O27     1.880   .     S
Ga24   O25     2.542   .     S
Ga24   O28     2.684   .     S
O25    Zr34    2.156   .     S
O25    Zr30    2.062   1_455 S
O26    Zr30    2.483   1_455 S
O26    Zr56    2.227   .     S
O26    Zr44    2.178   .     S
O27    Zr35    2.286   1_545 S
O27    Zr29    2.280   .     S
O28    Zr44    2.177   .     S
O28    Zr50    2.161   .     S
O28    Zr35    2.183   1_545 S
Zr29   O41     2.061   1_545 S
Zr29   O21     2.965   1_545 S
Zr29   O32     2.171   .     S
Zr30   O31     2.165   .     S
Zr30   O26     2.483   1_655 S
Zr30   O43     2.275   .     S
Zr30   O32     2.033   .     S
Zr30   O25     2.062   1_655 S
Zr30   O33     2.201   .     S
O31    Zr61    2.275   .     S
O31    Zr50    2.415   .     S
O32    Ga40    1.894   1_545 S
O32    Zr23    2.829   1_655 S
O33    Zr50    2.085   .     S
O33    Zr44    2.111   1_655 S
O33    Ga40    2.609   1_545 S
Zr34   O36     2.137   .     S
Zr34   O38     2.480   .     S
Zr34   O43     2.208   1_455 S
Zr35   O37     2.258   .     S
Zr35   O42     2.214   .     S
Zr35   O27     2.286   1_565 S
Zr35   O38     2.342   .     S
Zr35   O36     2.179   .     S
Zr35   O41     2.098   .     S
Zr35   O28     2.183   1_565 S
O36    Zr23    2.037   1_565 S
O36    Ga40    2.558   1_455 S
O37    Ga40    1.897   1_455 S
O37    Zr44    3.010   1_565 S
O37    Zr56    2.068   .     S
O38    Zr39    2.305   .     S
Zr39   O41     2.064   .     S
Zr39   O43     2.220   .     S
Ga40   O42     1.896   .     S
Ga40   O37     1.897   1_655 S
Ga40   O32     1.894   1_565 S
Ga40   O43     1.953   .     S
Ga40   O41     2.845   .     S
Ga40   O36     2.558   1_655 S
Ga40   O33     2.609   1_565 S
O41    Zr29    2.061   1_565 S
O42    Zr50    2.954   1_565 S
O42    Zr61    2.065   .     S
O43    Zr34    2.208   1_655 S
Zr44   O46     2.056   .     S
Zr44   O58     2.522   1_545 S
Zr44   O33     2.111   1_455 S
Zr44   O37     3.010   1_545 S
Zr44   O48     2.145   .     S
Zr44   O54     2.525   1_455 S
Zr45   O47     2.094   .     S
Zr45   O53     2.074   .     S
Zr45   O48     2.046   .     S
Zr45   O46     2.332   .     S
Zr45   O52     2.358   .     S
Zr45   O60     2.199   .     S
Zr45   O49     2.180   .     S
O46    Zr56    2.085   .     S
O46    Ga51    2.769   1_455 S
O47    Ga51    1.910   1_455 S
O47    Zr13    2.351   1_556 S
O47    Zr1     2.339   1_556 S
O48    Y57     2.313   1_545 S
O48    Zr50    2.371   .     S
O49    Zr1     2.120   1_556 S
O49    Zr7     2.081   1_556 S
O49    Y57     2.566   1_545 S
Zr50   O52     2.067   .     S
Zr50   O63     2.286   1_545 S
Zr50   O42     2.954   1_545 S
Zr50   O54     2.280   .     S
Ga51   O53     1.916   .     S
Ga51   O47     1.910   1_655 S
Ga51   O54     1.928   .     S
Ga51   O52     2.863   .     S
Ga51   O46     2.769   1_655 S
Ga51   O65     1.979   .     S
Ga51   O55     2.093   .     S
O52    Zr61    2.089   .     S
O53    Zr18    2.382   1_556 S
O53    Zr7     2.366   1_556 S
O54    Zr62    2.195   1_545 S
O54    Zr44    2.525   1_655 S
O55    Zr7     2.112   1_556 S
O55    Zr1     2.102   1_656 S
O55    Zr62    2.103   1_545 S
Zr56   O58     2.062   .     S
Y57    O59     2.319   .     S
Y57    O64     2.308   .     S
Y57    O48     2.313   1_565 S
Y57    O58     2.493   .     S
Y57    O63     2.530   .     S
Y57    O49     2.566   1_565 S
Y57    O60     2.455   .     S
O58    Zr44    2.522   1_565 S
O58    Zr62    2.263   1_455 S
O59    Zr62    2.032   1_455 S
O59    Zr1     2.249   1_566 S
O59    Zr13    2.282   1_556 S
O60    Zr13    2.140   1_556 S
O60    Zr18    2.128   1_556 S
Zr61   O63     2.072   .     S
Zr62   O64     2.032   .     S
Zr62   O59     2.032   1_655 S
Zr62   O54     2.195   1_565 S
Zr62   O63     2.288   .     S
Zr62   O58     2.263   1_655 S
Zr62   O55     2.103   1_565 S
Zr62   O65     2.386   .     S
O63    Zr50    2.286   1_565 S
O64    Zr7     2.279   1_566 S
O64    Zr18    2.295   1_556 S
O65    Zr18    2.303   1_556 S
O65    Zr13    2.246   1_656 S
