data_t-YSZ-Al-10%-Vo-2
_audit_creation_date              2022-06-18
_audit_creation_method            'Materials Studio'
_symmetry_space_group_name_H-M    'PM'
_symmetry_Int_Tables_number       6
_symmetry_cell_setting            monoclinic
loop_
_symmetry_equiv_pos_as_xyz
  x,y,z
  x,-y,z
_cell_length_a                    7.2115
_cell_length_b                    7.2115
_cell_length_c                    15.3495
_cell_angle_alpha                 90.0000
_cell_angle_beta                  90.0000
_cell_angle_gamma                 90.0000
loop_
_atom_site_label
_atom_site_type_symbol
_atom_site_fract_x
_atom_site_fract_y
_atom_site_fract_z
_atom_site_U_iso_or_equiv
_atom_site_adp_type
_atom_site_occupancy
Zr1    Zr   -0.01577  -0.24562  -0.00043   0.00000  Uiso   1.00
O2     O     0.23245  -0.24967   0.10426   0.00000  Uiso   1.00
O3     O     0.29179  -0.29585   0.26632   0.00000  Uiso   1.00
Zr4    Zr    0.49094  -0.25471   0.00155   0.00000  Uiso   1.00
O5     O     0.74052  -0.27184   0.08920   0.00000  Uiso   1.00
O6     O     0.74073  -0.28730   0.26630   0.00000  Uiso   1.00
Zr7    Zr    0.03485  -0.25959   0.32152   0.00000  Uiso   1.00
O8     O     0.24541  -0.28045   0.42894   0.00000  Uiso   1.00
O9     O     0.29657  -0.20674   0.58918   0.00000  Uiso   1.00
Zr10   Zr    0.50898  -0.23651   0.34900   0.00000  Uiso   1.00
O11    O     0.76980  -0.22218   0.43173   0.00000  Uiso   1.00
O12    O     0.71691  -0.30885   0.59788   0.00000  Uiso   1.00
Zr13   Zr   -0.02109  -0.24675   0.66717   0.00000  Uiso   1.00
O14    O     0.23867  -0.24129   0.75283   0.00000  Uiso   1.00
O15    O     0.23929  -0.23684   0.93527   0.00000  Uiso   1.00
Zr16   Zr    0.49694  -0.24961   0.67923   0.00000  Uiso   1.00
O17    O     0.75820  -0.22833   0.76852   0.00000  Uiso   1.00
O18    O     0.73494  -0.21658   0.93162   0.00000  Uiso   1.00
Zr19   Zr    0.26411   0.00000   0.16158   0.00000  Uiso   1.00
O20    O    -0.00645   0.00000   0.06658   0.00000  Uiso   1.00
O21    O     0.03502   0.00000   0.24400   0.00000  Uiso   1.00
Y22    Y     0.74687   0.00000   0.17191   0.00000  Uiso   1.00
O23    O     0.48762   0.00000   0.06985   0.00000  Uiso   1.00
O24    O     0.48414   0.00000   0.26095   0.00000  Uiso   1.00
Zr25   Zr    0.24010   0.00000   0.50352   0.00000  Uiso   1.00
O26    O     0.04269   0.00000   0.39990   0.00000  Uiso   1.00
O27    O    -0.03874   0.00000   0.56433   0.00000  Uiso   1.00
Al28   Al    0.83079   0.00000   0.46757   0.00000  Uiso   1.00
O29    O     0.48410   0.00000   0.42828   0.00000  Uiso   1.00
Zr30   Zr    0.23199   0.00000   0.82909   0.00000  Uiso   1.00
O31    O     0.01480   0.00000   0.72142   0.00000  Uiso   1.00
O32    O    -0.01454   0.00000   0.89254   0.00000  Uiso   1.00
Al33   Al    0.73753   0.00000   0.85471   0.00000  Uiso   1.00
O34    O     0.50844   0.00000   0.72248   0.00000  Uiso   1.00
O35    O     0.48781   0.00000   0.88998   0.00000  Uiso   1.00
Al36   Al    0.22982   0.50000   0.14750   0.00000  Uiso   1.00
O37    O     0.01043   0.50000   0.07123   0.00000  Uiso   1.00
O38    O     0.02562   0.50000   0.22919   0.00000  Uiso   1.00
Zr39   Zr    0.77420   0.50000   0.16115   0.00000  Uiso   1.00
O40    O     0.46582   0.50000   0.09219   0.00000  Uiso   1.00
Al41   Al    0.18789   0.50000   0.47384   0.00000  Uiso   1.00
O42    O    -0.01692   0.50000   0.39796   0.00000  Uiso   1.00
O43    O     0.03980   0.50000   0.56577   0.00000  Uiso   1.00
Zr44   Zr    0.76715   0.50000   0.49413   0.00000  Uiso   1.00
O45    O     0.54051   0.50000   0.41104   0.00000  Uiso   1.00
Y46    Y     0.23777   0.50000   0.84025   0.00000  Uiso   1.00
O47    O    -0.03104   0.50000   0.73293   0.00000  Uiso   1.00
O48    O    -0.04189   0.50000   0.91379   0.00000  Uiso   1.00
Zr49   Zr    0.74745   0.50000   0.82959   0.00000  Uiso   1.00
O50    O     0.50860   0.50000   0.74127   0.00000  Uiso   1.00
O51    O     0.51822   0.50000   0.92052   0.00000  Uiso   1.00
loop_
_geom_bond_atom_site_label_1
_geom_bond_atom_site_label_2
_geom_bond_distance
_geom_bond_site_symmetry_2
_ccdc_geom_bond_type
Zr1    O20     2.049   .     S
Zr1    O37     2.147   1_545 S
Zr1    O15     2.088   1_554 S
Zr1    O18     2.089   1_454 S
Zr1    O32     2.416   1_554 S
Zr1    O48     2.266   1_544 S
Zr1    O2      2.406   .     S
Zr1    O5      2.240   1_455 S
O2     Al36    1.923   1_545 S
O2     Zr19    2.017   .     S
O2     Zr4     2.442   .     S
O3     Zr7     2.054   .     S
O3     Zr10    2.061   .     S
O3     Zr19    2.679   .     S
O3     Al36    2.386   1_545 S
Zr4    O23     2.115   .     S
Zr4    O40     2.258   1_545 S
Zr4    O18     2.079   1_554 S
Zr4    O15     2.084   1_554 S
Zr4    O35     2.511   1_554 S
Zr4    O51     2.171   1_544 S
Zr4    O5      2.250   .     S
O5     Zr39    1.997   1_545 S
O5     Y22     2.336   .     S
O5     Zr1     2.240   1_655 S
O6     Zr10    2.130   .     S
O6     Zr7     2.293   1_655 S
O6     Y22     2.529   .     S
O6     Zr39    2.240   1_545 S
Zr7    O26     2.226   .     S
Zr7    O42     2.126   1_545 S
Zr7    O6      2.293   1_455 S
Zr7    O21     2.218   .     S
Zr7    O38     2.240   1_545 S
Zr7    O8      2.247   .     S
Zr7    O11     2.567   1_455 S
O8     Al41    1.776   1_545 S
O8     Zr25    2.324   .     S
O8     Zr10    2.284   .     S
O9     Zr13    2.601   .     S
O9     Zr16    2.023   .     S
O9     Zr25    2.029   .     S
O9     Al41    2.867   1_545 S
Zr10   O29     2.103   .     S
Zr10   O45     2.138   1_545 S
Zr10   O24     2.184   .     S
Zr10   O11     2.272   .     S
O11    Zr44    2.221   1_545 S
O11    Al28    1.750   .     S
O11    Zr7     2.567   1_655 S
O12    Zr16    2.064   .     S
O12    Zr13    2.214   1_655 S
O12    Al28    3.104   .     S
O12    Zr44    2.137   1_545 S
Zr13   O31     1.982   .     S
Zr13   O47     2.088   1_545 S
Zr13   O12     2.214   1_455 S
Zr13   O27     2.382   .     S
Zr13   O43     2.439   1_545 S
Zr13   O14     2.289   .     S
Zr13   O17     2.230   1_455 S
O14    Y46     2.298   1_545 S
O14    Zr30    2.098   .     S
O14    Zr16    2.179   .     S
O15    Zr1     2.088   1_556 S
O15    Zr4     2.084   1_556 S
O15    Zr30    2.361   .     S
O15    Y46     2.394   1_545 S
Zr16   O34     1.920   .     S
Zr16   O50     2.043   1_545 S
Zr16   O17     2.335   .     S
O17    Zr49    2.173   1_545 S
O17    Al33    2.117   .     S
O17    Zr13    2.230   1_655 S
O18    Zr4     2.079   1_556 S
O18    Zr1     2.089   1_656 S
O18    Al33    1.958   .     S
O18    Zr49    2.577   1_545 S
Zr19   O21     2.081   .     S
Zr19   O24     2.201   .     S
Zr19   O2      2.017   2     S
Zr19   O20     2.436   .     S
Zr19   O23     2.140   .     S
Zr19   O3      2.679   2     S
O20    Zr1     2.049   2     S
O20    Y22     2.404   1_455 S
O21    Y22     2.354   1_455 S
O21    Zr7     2.218   2     S
Y22    O24     2.336   .     S
Y22    O21     2.354   1_655 S
Y22    O5      2.336   2     S
Y22    O23     2.439   .     S
Y22    O20     2.404   1_655 S
Y22    O6      2.529   2     S
O23    Zr4     2.115   2     S
O24    Zr10    2.184   2     S
Zr25   O27     2.217   .     S
Zr25   O8      2.324   2     S
Zr25   O26     2.135   .     S
Zr25   O29     2.105   .     S
Zr25   O9      2.029   2     S
O26    Zr7     2.226   2     S
O26    Al28    1.848   1_455 S
O27    Al28    1.758   1_455 S
O27    Zr13    2.382   2     S
Al28   O27     1.758   1_655 S
Al28   O11     1.750   2     S
Al28   O29     2.572   .     S
Al28   O26     1.848   1_655 S
Al28   O12     3.104   2     S
O29    Zr10    2.103   2     S
Zr30   O32     2.027   .     S
Zr30   O35     2.068   .     S
Zr30   O14     2.098   2     S
Zr30   O31     2.277   .     S
Zr30   O34     2.579   .     S
Zr30   O15     2.361   2     S
O31    Zr13    1.982   2     S
O31    Al33    2.861   1_455 S
O32    Al33    1.880   1_455 S
O32    Zr1     2.416   2_556 S
O32    Zr1     2.416   1_556 S
Al33   O35     1.880   .     S
Al33   O32     1.880   1_655 S
Al33   O17     2.117   2     S
Al33   O34     2.617   .     S
Al33   O31     2.861   1_655 S
Al33   O18     1.958   2     S
O34    Zr16    1.920   2     S
O35    Zr4     2.511   2_556 S
O35    Zr4     2.511   1_556 S
Al36   O38     1.934   .     S
Al36   O2      1.923   1_565 S
Al36   O2      1.923   2     S
Al36   O37     1.968   .     S
Al36   O40     1.902   .     S
Al36   O3      2.386   1_565 S
Al36   O3      2.386   2     S
O37    Zr1     2.147   2     S
O37    Zr1     2.147   1_565 S
O37    Zr39    2.193   1_455 S
O38    Zr39    2.092   1_455 S
O38    Zr7     2.240   1_565 S
O38    Zr7     2.240   2     S
Zr39   O38     2.092   1_655 S
Zr39   O5      1.997   1_565 S
Zr39   O5      1.997   2     S
Zr39   O40     2.463   .     S
Zr39   O37     2.193   1_655 S
Zr39   O6      2.240   1_565 S
Zr39   O6      2.240   2     S
O40    Zr4     2.258   2     S
O40    Zr4     2.258   1_565 S
Al41   O43     1.770   .     S
Al41   O8      1.776   1_565 S
Al41   O8      1.776   2     S
Al41   O42     1.881   .     S
Al41   O45     2.720   .     S
Al41   O9      2.867   1_565 S
Al41   O9      2.867   2     S
O42    Zr7     2.126   2     S
O42    Zr7     2.126   1_565 S
O42    Zr44    2.146   1_455 S
O43    Zr44    2.253   1_455 S
O43    Zr13    2.439   1_565 S
O43    Zr13    2.439   2     S
Zr44   O43     2.253   1_655 S
Zr44   O11     2.221   1_565 S
Zr44   O11     2.221   2     S
Zr44   O45     2.073   .     S
Zr44   O42     2.146   1_655 S
Zr44   O12     2.137   1_565 S
Zr44   O12     2.137   2     S
O45    Zr10    2.138   2     S
O45    Zr10    2.138   1_565 S
Y46    O48     2.311   .     S
Y46    O51     2.368   .     S
Y46    O14     2.298   1_565 S
Y46    O14     2.298   2     S
Y46    O47     2.544   .     S
Y46    O50     2.474   .     S
Y46    O15     2.394   1_565 S
Y46    O15     2.394   2     S
O47    Zr13    2.088   2     S
O47    Zr13    2.088   1_565 S
O47    Zr49    2.180   1_455 S
O48    Zr49    1.995   1_455 S
O48    Zr1     2.266   1_566 S
O48    Zr1     2.266   2_556 S
Zr49   O51     2.164   .     S
Zr49   O48     1.995   1_655 S
Zr49   O17     2.173   1_565 S
Zr49   O17     2.173   2     S
Zr49   O50     2.192   .     S
Zr49   O47     2.180   1_655 S
Zr49   O18     2.577   1_565 S
Zr49   O18     2.577   2     S
O50    Zr16    2.043   2     S
O50    Zr16    2.043   1_565 S
O51    Zr4     2.171   1_566 S
O51    Zr4     2.171   2_556 S
