data_t-YSZ-25%-Vo2
_audit_creation_date              2022-06-18
_audit_creation_method            'Materials Studio'
_symmetry_space_group_name_H-M    'PM'
_symmetry_Int_Tables_number       6
_symmetry_cell_setting            monoclinic
loop_
_symmetry_equiv_pos_as_xyz
  x,y,z
  x,-y,z
_cell_length_a                    15.3791
_cell_length_b                    7.2400
_cell_length_c                    7.2400
_cell_angle_alpha                 90.0000
_cell_angle_beta                  90.0000
_cell_angle_gamma                 90.0000
loop_
_atom_site_label
_atom_site_type_symbol
_atom_site_fract_x
_atom_site_fract_y
_atom_site_fract_z
_atom_site_U_iso_or_equiv
_atom_site_adp_type
_atom_site_occupancy
Zr1    Zr    0.00563   0.25259   0.01165   0.00000  Uiso   1.00
O2     O     0.06424   0.25649   0.27029   0.00000  Uiso   1.00
O3     O     0.23462   0.31464   0.27205   0.00000  Uiso   1.00
Zr4    Zr   -0.00099   0.24564   0.52326   0.00000  Uiso   1.00
O5     O     0.06124   0.30377   0.76587   0.00000  Uiso   1.00
O6     O     0.22754   0.22009   0.77131   0.00000  Uiso   1.00
Zr7    Zr    0.33927   0.23270  -0.06176   0.00000  Uiso   1.00
O8     O     0.39915   0.32711   0.20021   0.00000  Uiso   1.00
O9     O     0.56687   0.28120   0.22742   0.00000  Uiso   1.00
Zr10   Zr    0.34881   0.22143   0.44921   0.00000  Uiso   1.00
O11    O     0.39966   0.18513   0.69990   0.00000  Uiso   1.00
O12    O     0.55968   0.18969   0.73207   0.00000  Uiso   1.00
Zr13   Zr    0.68376   0.26010   0.05068   0.00000  Uiso   1.00
O14    O     0.73371   0.19771   0.29578   0.00000  Uiso   1.00
O15    O     0.89565   0.26866   0.25814   0.00000  Uiso   1.00
Zr16   Zr    0.64407   0.27672   0.49563   0.00000  Uiso   1.00
O17    O     0.71931   0.21825   0.76660   0.00000  Uiso   1.00
O18    O     0.90335   0.21086   0.77040   0.00000  Uiso   1.00
Al19   Al    0.14131   0.50000   0.27523   0.00000  Uiso   1.00
O20    O     0.10825   0.50000   0.03704   0.00000  Uiso   1.00
O21    O     0.28396   0.50000  -0.03438   0.00000  Uiso   1.00
Zr22   Zr    0.16364   0.50000   0.77500   0.00000  Uiso   1.00
O23    O     0.11723   0.50000   0.51052   0.00000  Uiso   1.00
O24    O     0.33744   0.50000   0.49650   0.00000  Uiso   1.00
Al25   Al    0.49609   0.50000   0.15376   0.00000  Uiso   1.00
O26    O     0.44742   0.50000  -0.08166   0.00000  Uiso   1.00
O27    O     0.61391   0.50000  -0.04627   0.00000  Uiso   1.00
Al28   Al    0.53508   0.50000   0.77363   0.00000  Uiso   1.00
O29    O     0.55519   0.50000   0.53791   0.00000  Uiso   1.00
Al30   Al    0.86671   0.50000   0.21896   0.00000  Uiso   1.00
O31    O     0.76882   0.50000   0.07141   0.00000  Uiso   1.00
O32    O     0.93651   0.50000   0.00688   0.00000  Uiso   1.00
Y33    Y     0.82769   0.50000   0.74989   0.00000  Uiso   1.00
O34    O     0.72570   0.50000   0.50425   0.00000  Uiso   1.00
O35    O     0.93496   0.50000   0.51601   0.00000  Uiso   1.00
Al36   Al    0.30810   0.50000   0.22076   0.00000  Uiso   1.00
Y37    Y     0.16340   1.00000   0.25771   0.00000  Uiso   1.00
O38    O     0.09723   1.00000  -0.03751   0.00000  Uiso   1.00
O39    O     0.28654   1.00000   0.04924   0.00000  Uiso   1.00
Al40   Al    0.16472   1.00000   0.75707   0.00000  Uiso   1.00
O41    O     0.09356   1.00000   0.56005   0.00000  Uiso   1.00
O42    O     0.27367   1.00000   0.47875   0.00000  Uiso   1.00
Al43   Al    0.51733   1.00000   0.17993   0.00000  Uiso   1.00
O44    O     0.44623   1.00000  -0.01491   0.00000  Uiso   1.00
O45    O     0.61604   1.00000   0.02749   0.00000  Uiso   1.00
Al46   Al    0.47963   1.00000   0.74087   0.00000  Uiso   1.00
O47    O     0.44573   1.00000   0.38206   0.00000  Uiso   1.00
Zr48   Zr    0.84094   1.00000   0.26887   0.00000  Uiso   1.00
O49    O     0.77685   1.00000   0.01057   0.00000  Uiso   1.00
O50    O     0.93852   1.00000   0.05178   0.00000  Uiso   1.00
Al51   Al    0.86183   1.00000   0.84671   0.00000  Uiso   1.00
O52    O     0.64805   1.00000   0.51287   0.00000  Uiso   1.00
O53    O     0.93032   1.00000   0.48039   0.00000  Uiso   1.00
Al54   Al    0.64830   1.00000   0.76521   0.00000  Uiso   1.00
loop_
_geom_bond_atom_site_label_1
_geom_bond_atom_site_label_2
_geom_bond_distance
_geom_bond_site_symmetry_2
_ccdc_geom_bond_type
Zr1    O2      2.078   .     S
Zr1    O5      2.009   1_554 S
Zr1    O32     2.083   1_455 S
Zr1    O50     2.120   1_445 S
Zr1    O15     2.461   1_455 S
Zr1    O18     2.370   1_454 S
Zr1    O20     2.394   .     S
Zr1    O38     2.336   1_545 S
O2     Zr4     2.090   .     S
O2     Al19    2.125   .     S
O2     Y37     2.405   1_545 S
O3     Al19    1.965   .     S
O3     Y37     2.530   1_545 S
O3     Zr10    2.277   .     S
O3     Zr7     2.964   .     S
Zr4    O5      2.044   .     S
Zr4    O35     2.089   1_455 S
Zr4    O53     2.092   1_445 S
Zr4    O18     2.330   1_455 S
Zr4    O15     2.498   1_455 S
Zr4    O23     2.590   .     S
Zr4    O41     2.313   1_545 S
O5     Zr1     2.009   1_556 S
O5     Zr22    2.122   .     S
O5     Al40    2.715   1_545 S
O6     Zr22    2.253   .     S
O6     Al40    1.866   1_545 S
O6     Zr7     2.103   1_556 S
O6     Zr10    2.986   .     S
Zr7    O8      2.217   .     S
Zr7    O11     1.990   1_554 S
Zr7    O21     2.123   .     S
Zr7    O39     2.035   1_545 S
Zr7    O6      2.103   1_554 S
Zr7    O26     2.556   .     S
Zr7    O44     2.379   1_545 S
O8     Zr10    2.106   .     S
O8     Al25    1.975   .     S
O8     Al43    2.989   1_545 S
O9     Al25    1.995   .     S
O9     Al43    2.201   1_545 S
O9     Zr16    2.276   .     S
O9     Zr13    2.212   .     S
Zr10   O11     1.994   .     S
Zr10   O24     2.053   .     S
Zr10   O42     1.988   1_545 S
Zr10   O47     2.242   1_545 S
O11    Zr7     1.990   1_556 S
O11    Al28    3.133   .     S
O11    Al46    1.843   1_545 S
O12    Al28    2.298   .     S
O12    Al46    1.845   1_545 S
O12    Zr13    3.037   1_556 S
O12    Zr16    2.239   .     S
Zr13   O14     1.986   .     S
Zr13   O17     2.150   1_554 S
Zr13   O27     2.160   .     S
Zr13   O45     2.158   1_545 S
Zr13   O12     3.037   1_554 S
Zr13   O31     2.180   .     S
Zr13   O49     2.383   1_545 S
O14    Zr16    2.079   .     S
O14    Al30    3.047   .     S
O14    Zr48    2.192   1_545 S
O15    Al30    1.756   .     S
O15    Zr48    2.121   1_545 S
O15    Zr4     2.498   1_655 S
O15    Zr1     2.461   1_655 S
Zr16   O17     2.317   .     S
Zr16   O29     2.139   .     S
Zr16   O34     2.048   .     S
Zr16   O52     2.008   1_545 S
O17    Zr13    2.150   1_556 S
O17    Y33     2.637   .     S
O17    Al51    2.764   1_545 S
O18    Y33     2.400   .     S
O18    Al51    1.745   1_545 S
O18    Zr1     2.370   1_656 S
O18    Zr4     2.330   1_655 S
Al19   O3      1.965   2_565 S
Al19   O23     1.743   .     S
Al19   O20     1.798   .     S
Al19   O2      2.125   2_565 S
Al19   O24     3.415   .     S
Al19   O21     3.136   .     S
O20    Zr22    2.080   1_554 S
O20    Zr1     2.394   2_565 S
O21    Zr7     2.123   2_565 S
O21    Zr22    2.308   1_554 S
Zr22   O6      2.253   2_565 S
Zr22   O20     2.080   1_556 S
Zr22   O23     2.044   .     S
Zr22   O5      2.122   2_565 S
Zr22   O21     2.308   1_556 S
Zr22   O24     3.348   .     S
O23    Zr4     2.590   2_565 S
O24    Zr10    2.053   2_565 S
Al25   O9      1.995   2_565 S
Al25   O26     1.862   .     S
Al25   O8      1.975   2_565 S
Al25   O29     2.926   .     S
Al25   O27     2.320   .     S
O26    Al28    1.707   1_554 S
O26    Zr7     2.556   2_565 S
O27    Zr13    2.160   2_565 S
O27    Al28    1.780   1_554 S
Al28   O12     2.298   2_565 S
Al28   O26     1.707   1_556 S
Al28   O11     3.133   2_565 S
Al28   O27     1.780   1_556 S
Al28   O29     1.734   .     S
O29    Zr16    2.139   2_565 S
Al30   O15     1.756   2_565 S
Al30   O34     2.995   .     S
Al30   O31     1.846   .     S
Al30   O14     3.047   2_565 S
Al30   O35     2.393   .     S
Al30   O32     1.874   .     S
O31    Y33     2.498   1_554 S
O31    Zr13    2.180   2_565 S
O32    Zr1     2.083   1_655 S
O32    Zr1     2.083   2_665 S
O32    Y33     2.503   1_554 S
Y33    O18     2.400   2_565 S
Y33    O31     2.498   1_556 S
Y33    O34     2.371   .     S
Y33    O17     2.637   2_565 S
Y33    O32     2.503   1_556 S
Y33    O35     2.364   .     S
O34    Zr16    2.048   2_565 S
O35    Zr4     2.089   1_655 S
O35    Zr4     2.089   2_665 S
Y37    O3      2.530   2_565 S
Y37    O3      2.530   1_565 S
Y37    O41     2.438   .     S
Y37    O38     2.367   .     S
Y37    O2      2.405   2_565 S
Y37    O2      2.405   1_565 S
Y37    O42     2.332   .     S
Y37    O39     2.422   .     S
O38    Al40    1.814   1_554 S
O38    Zr1     2.336   2_565 S
O38    Zr1     2.336   1_565 S
O39    Zr7     2.035   2_565 S
O39    Zr7     2.035   1_565 S
O39    Al40    2.826   1_554 S
Al40   O6      1.866   2_565 S
Al40   O6      1.866   1_565 S
Al40   O38     1.814   1_556 S
Al40   O41     1.798   .     S
Al40   O5      2.715   2_565 S
Al40   O5      2.715   1_565 S
Al40   O39     2.826   1_556 S
Al40   O42     2.621   .     S
O41    Zr4     2.313   2_565 S
O41    Zr4     2.313   1_565 S
O42    Zr10    1.988   2_565 S
O42    Zr10    1.988   1_565 S
Al43   O9      2.201   2_565 S
Al43   O9      2.201   1_565 S
Al43   O47     1.831   .     S
Al43   O44     1.785   .     S
Al43   O8      2.989   2_565 S
Al43   O8      2.989   1_565 S
Al43   O45     1.877   .     S
O44    Al46    1.841   1_554 S
O44    Zr7     2.379   2_565 S
O44    Zr7     2.379   1_565 S
O45    Zr13    2.158   2_565 S
O45    Zr13    2.158   1_565 S
O45    Al46    2.951   1_554 S
Al46   O12     1.845   2_565 S
Al46   O12     1.845   1_565 S
Al46   O44     1.841   1_556 S
Al46   O47     2.650   .     S
Al46   O11     1.843   2_565 S
Al46   O11     1.843   1_565 S
Al46   O45     2.951   1_556 S
O47    Zr10    2.242   2_565 S
O47    Zr10    2.242   1_565 S
Zr48   O15     2.121   2_565 S
Zr48   O15     2.121   1_565 S
Zr48   O52     3.453   .     S
Zr48   O49     2.114   .     S
Zr48   O14     2.192   2_565 S
Zr48   O14     2.192   1_565 S
Zr48   O53     2.058   .     S
Zr48   O50     2.173   .     S
O49    Al51    1.765   1_554 S
O49    Zr13    2.383   2_565 S
O49    Zr13    2.383   1_565 S
O50    Zr1     2.120   2_665 S
O50    Zr1     2.120   1_665 S
O50    Al51    1.896   1_554 S
Al51   O18     1.745   2_565 S
Al51   O18     1.745   1_565 S
Al51   O49     1.765   1_556 S
Al51   O52     4.081   .     S
Al51   O17     2.764   2_565 S
Al51   O17     2.764   1_565 S
Al51   O50     1.896   1_556 S
Al51   O53     2.854   .     S
O52    Zr16    2.008   2_565 S
O52    Zr16    2.008   1_565 S
O53    Zr4     2.092   2_665 S
O53    Zr4     2.092   1_665 S
