data_t-YSZ-Al-15%-Vo
_audit_creation_date              2022-06-18
_audit_creation_method            'Materials Studio'
_symmetry_space_group_name_H-M    'PM'
_symmetry_Int_Tables_number       6
_symmetry_cell_setting            monoclinic
loop_
_symmetry_equiv_pos_as_xyz
  x,y,z
  x,-y,z
_cell_length_a                    7.1998
_cell_length_b                    7.1998
_cell_length_c                    15.2248
_cell_angle_alpha                 90.0000
_cell_angle_beta                  90.0000
_cell_angle_gamma                 90.0000
loop_
_atom_site_label
_atom_site_type_symbol
_atom_site_fract_x
_atom_site_fract_y
_atom_site_fract_z
_atom_site_U_iso_or_equiv
_atom_site_adp_type
_atom_site_occupancy
O1     O     0.23062   0.26474   0.10718   0.00000  Uiso   1.00
O2     O     0.30759   0.19018   0.27056   0.00000  Uiso   1.00
Zr3    Zr   -0.01131   0.24924  -0.00904   0.00000  Uiso   1.00
O4     O     0.74528   0.20714   0.09357   0.00000  Uiso   1.00
O5     O     0.72924   0.27627   0.27658   0.00000  Uiso   1.00
Zr6    Zr    0.49324   0.24908  -0.00020   0.00000  Uiso   1.00
O7     O     0.23586   0.28678   0.42596   0.00000  Uiso   1.00
O8     O     0.29402   0.20608   0.58933   0.00000  Uiso   1.00
Zr9    Zr    0.02221   0.25148   0.32082   0.00000  Uiso   1.00
O10    O     0.76885   0.22047   0.43737   0.00000  Uiso   1.00
O11    O     0.71367   0.30134   0.59876   0.00000  Uiso   1.00
Zr12   Zr    0.51285   0.24673   0.36022   0.00000  Uiso   1.00
O13    O     0.23638   0.30449   0.75795   0.00000  Uiso   1.00
O14    O     0.24418   0.23312   0.93890   0.00000  Uiso   1.00
Zr15   Zr   -0.01405   0.25281   0.67476   0.00000  Uiso   1.00
O16    O     0.75904   0.20921   0.76787   0.00000  Uiso   1.00
O17    O     0.73780   0.30414   0.93562   0.00000  Uiso   1.00
Zr18   Zr    0.49262   0.25356   0.68073   0.00000  Uiso   1.00
O19    O    -0.00970   0.50000   0.06258   0.00000  Uiso   1.00
O20    O     0.07087   0.50000   0.23736   0.00000  Uiso   1.00
Al21   Al    0.20598   0.50000   0.13186   0.00000  Uiso   1.00
O22    O     0.48017   0.50000   0.07754   0.00000  Uiso   1.00
Y23    Y     0.74751   0.50000   0.16356   0.00000  Uiso   1.00
O24    O    -0.03452   0.50000   0.39702   0.00000  Uiso   1.00
O25    O     0.03862   0.50000   0.56810   0.00000  Uiso   1.00
Al26   Al    0.17383   0.50000   0.47212   0.00000  Uiso   1.00
O27    O     0.53230   0.50000   0.42207   0.00000  Uiso   1.00
Zr28   Zr    0.76953   0.50000   0.50482   0.00000  Uiso   1.00
O29    O    -0.06836   0.50000   0.72960   0.00000  Uiso   1.00
O30    O     0.02236   0.50000   0.89330   0.00000  Uiso   1.00
Al31   Al    0.24233   0.50000   0.83637   0.00000  Uiso   1.00
O32    O     0.54138   0.50000   0.73367   0.00000  Uiso   1.00
O33    O     0.45850   0.50000   0.89635   0.00000  Uiso   1.00
Zr34   Zr    0.74267   0.50000   0.83788   0.00000  Uiso   1.00
O35    O     0.02832   1.00000   0.06520   0.00000  Uiso   1.00
O36    O    -0.02311   1.00000   0.23212   0.00000  Uiso   1.00
Zr37   Zr    0.25298   1.00000   0.15989   0.00000  Uiso   1.00
O38    O     0.45588   1.00000   0.06972   0.00000  Uiso   1.00
Al39   Al    0.82659   1.00000   0.13682   0.00000  Uiso   1.00
O40    O     0.03887   1.00000   0.39669   0.00000  Uiso   1.00
O41    O    -0.03267   1.00000   0.56523   0.00000  Uiso   1.00
Zr42   Zr    0.23468   1.00000   0.50479   0.00000  Uiso   1.00
O43    O     0.48174   1.00000   0.42631   0.00000  Uiso   1.00
Al44   Al    0.83046   1.00000   0.47148   0.00000  Uiso   1.00
O45    O     0.03797   1.00000   0.72130   0.00000  Uiso   1.00
O46    O    -0.05869   1.00000   0.90451   0.00000  Uiso   1.00
Y47    Y     0.24598   1.00000   0.83554   0.00000  Uiso   1.00
O48    O     0.48457   1.00000   0.72806   0.00000  Uiso   1.00
O49    O     0.54479   1.00000   0.90678   0.00000  Uiso   1.00
Al50   Al    0.74206   1.00000   0.83455   0.00000  Uiso   1.00
loop_
_geom_bond_atom_site_label_1
_geom_bond_atom_site_label_2
_geom_bond_distance
_geom_bond_site_symmetry_2
_ccdc_geom_bond_type
O1     Zr37    2.074   1_545 S
O1     Al21    1.744   .     S
O1     Zr3     2.485   .     S
O1     Zr6     2.502   .     S
O2     Zr9     2.236   .     S
O2     Zr12    2.053   .     S
O2     Al21    3.158   .     S
O2     Zr37    2.207   1_545 S
Zr3    O19     2.109   .     S
Zr3    O35     2.140   1_545 S
Zr3    O14     2.006   1_554 S
Zr3    O17     2.032   1_454 S
Zr3    O4      2.367   1_455 S
Zr3    O30     2.351   1_554 S
Zr3    O46     2.251   1_544 S
O4     Al39    1.732   1_545 S
O4     Y23     2.363   .     S
O4     Zr6     2.329   .     S
O4     Zr3     2.367   1_655 S
O5     Zr12    2.023   .     S
O5     Zr9     2.221   1_655 S
O5     Y23     2.361   .     S
O5     Al39    2.996   1_545 S
Zr6    O22     2.162   .     S
Zr6    O38     2.103   1_545 S
Zr6    O17     2.052   1_554 S
Zr6    O14     2.022   1_554 S
Zr6    O33     2.410   1_554 S
Zr6    O49     2.315   1_544 S
O7     Zr42    2.388   1_545 S
O7     Al26    1.746   .     S
O7     Zr9     2.235   .     S
O7     Zr12    2.250   .     S
O8     Zr15    2.593   .     S
O8     Zr18    2.024   .     S
O8     Al26    2.900   .     S
O8     Zr42    2.010   1_545 S
Zr9    O24     2.171   .     S
Zr9    O40     2.151   1_545 S
Zr9    O5      2.221   1_455 S
Zr9    O10     2.555   1_455 S
Zr9    O20     2.222   .     S
Zr9    O36     2.282   1_545 S
O10    Al44    1.728   1_545 S
O10    Zr28    2.259   .     S
O10    Zr12    2.194   .     S
O10    Zr9     2.555   1_655 S
O11    Zr18    2.052   .     S
O11    Zr15    2.303   1_655 S
O11    Zr28    2.062   .     S
O11    Al44    3.028   1_545 S
Zr12   O27     2.057   .     S
Zr12   O43     2.054   1_545 S
O13    Y47     2.491   1_545 S
O13    Al31    1.846   .     S
O13    Zr15    2.235   .     S
O13    Zr18    2.218   .     S
O14    Zr3     2.006   1_556 S
O14    Zr6     2.022   1_556 S
O14    Al31    2.476   .     S
O14    Y47     2.301   1_545 S
Zr15   O29     2.004   .     S
Zr15   O45     1.989   1_545 S
Zr15   O11     2.303   1_455 S
Zr15   O16     2.186   1_455 S
Zr15   O25     2.439   .     S
Zr15   O41     2.472   1_545 S
O16    Al50    1.821   1_545 S
O16    Zr34    2.352   .     S
O16    Zr18    2.354   .     S
O16    Zr15    2.186   1_655 S
O17    Zr6     2.052   1_556 S
O17    Zr3     2.032   1_656 S
O17    Zr34    2.050   .     S
O17    Al50    2.676   1_545 S
Zr18   O32     1.980   .     S
Zr18   O48     1.963   1_545 S
O19    Zr3     2.109   2_565 S
O19    Al21    1.877   .     S
O19    Y23     2.328   1_455 S
O20    Al21    1.878   .     S
O20    Y23     2.585   1_455 S
O20    Zr9     2.222   2_565 S
Al21   O1      1.744   2_565 S
Al21   O2      3.158   2_565 S
Al21   O22     2.140   .     S
O22    Zr6     2.162   2_565 S
O22    Y23     2.328   .     S
Y23    O20     2.585   1_655 S
Y23    O4      2.363   2_565 S
Y23    O5      2.361   2_565 S
Y23    O19     2.328   1_655 S
O24    Zr9     2.171   2_565 S
O24    Al26    1.886   .     S
O24    Zr28    2.164   1_455 S
O25    Al26    1.756   .     S
O25    Zr28    2.164   1_455 S
O25    Zr15    2.439   2_565 S
Al26   O7      1.746   2_565 S
Al26   O8      2.900   2_565 S
Al26   O27     2.691   .     S
O27    Zr12    2.057   2_565 S
O27    Zr28    2.122   .     S
Zr28   O25     2.164   1_655 S
Zr28   O10     2.259   2_565 S
Zr28   O11     2.062   2_565 S
Zr28   O24     2.164   1_655 S
O29    Zr15    2.004   2_565 S
O29    Al31    2.765   .     S
O29    Zr34    2.138   1_455 S
O30    Al31    1.805   .     S
O30    Zr34    2.183   1_455 S
O30    Zr3     2.351   2_566 S
O30    Zr3     2.351   1_556 S
Al31   O33     1.805   .     S
Al31   O13     1.846   2_565 S
Al31   O14     2.476   2_565 S
Al31   O32     2.661   .     S
O32    Zr18    1.980   2_565 S
O32    Zr34    2.149   .     S
O33    Zr34    2.231   .     S
O33    Zr6     2.410   2_566 S
O33    Zr6     2.410   1_556 S
Zr34   O30     2.183   1_655 S
Zr34   O16     2.352   2_565 S
Zr34   O17     2.050   2_565 S
Zr34   O29     2.138   1_655 S
O35    Zr3     2.140   2_565 S
O35    Zr3     2.140   1_565 S
O35    Zr37    2.167   .     S
O35    Al39    1.816   1_455 S
O36    Zr37    2.272   .     S
O36    Al39    1.810   1_455 S
O36    Zr9     2.282   1_565 S
O36    Zr9     2.282   2_565 S
Zr37   O1      2.074   1_565 S
Zr37   O1      2.074   2_565 S
Zr37   O2      2.207   1_565 S
Zr37   O2      2.207   2_565 S
Zr37   O38     2.005   .     S
O38    Zr6     2.103   2_565 S
O38    Zr6     2.103   1_565 S
O38    Al39    2.858   .     S
Al39   O36     1.810   1_655 S
Al39   O4      1.732   1_565 S
Al39   O4      1.732   2_565 S
Al39   O5      2.996   1_565 S
Al39   O5      2.996   2_565 S
Al39   O35     1.816   1_655 S
O40    Zr9     2.151   2_565 S
O40    Zr9     2.151   1_565 S
O40    Zr42    2.167   .     S
O40    Al44    1.884   1_455 S
O41    Zr42    2.133   .     S
O41    Al44    1.734   1_455 S
O41    Zr15    2.472   1_565 S
O41    Zr15    2.472   2_565 S
Zr42   O7      2.388   1_565 S
Zr42   O7      2.388   2_565 S
Zr42   O8      2.010   1_565 S
Zr42   O8      2.010   2_565 S
Zr42   O43     2.143   .     S
O43    Zr12    2.054   2_565 S
O43    Zr12    2.054   1_565 S
O43    Al44    2.603   .     S
Al44   O41     1.734   1_655 S
Al44   O10     1.728   1_565 S
Al44   O10     1.728   2_565 S
Al44   O11     3.028   1_565 S
Al44   O11     3.028   2_565 S
Al44   O40     1.884   1_655 S
O45    Zr15    1.989   2_565 S
O45    Zr15    1.989   1_565 S
O45    Y47     2.295   .     S
O45    Al50    2.741   1_455 S
O46    Y47     2.432   .     S
O46    Al50    1.787   1_455 S
O46    Zr3     2.251   1_566 S
O46    Zr3     2.251   2_566 S
Y47    O49     2.409   .     S
Y47    O13     2.491   1_565 S
Y47    O13     2.491   2_565 S
Y47    O14     2.301   1_565 S
Y47    O14     2.301   2_565 S
Y47    O48     2.373   .     S
O48    Zr18    1.963   2_565 S
O48    Zr18    1.963   1_565 S
O48    Al50    2.463   .     S
O49    Al50    1.796   .     S
O49    Zr6     2.315   1_566 S
O49    Zr6     2.315   2_566 S
Al50   O46     1.787   1_655 S
Al50   O16     1.821   1_565 S
Al50   O16     1.821   2_565 S
Al50   O17     2.676   1_565 S
Al50   O17     2.676   2_565 S
Al50   O45     2.741   1_655 S
