data_t-YSZ-Al-0%-Vo-2
_audit_creation_date              2022-06-18
_audit_creation_method            'Materials Studio'
_symmetry_space_group_name_H-M    'PM'
_symmetry_Int_Tables_number       6
_symmetry_cell_setting            monoclinic
loop_
_symmetry_equiv_pos_as_xyz
  x,y,z
  x,-y,z
_cell_length_a                    15.4734
_cell_length_b                    7.2218
_cell_length_c                    7.2218
_cell_angle_alpha                 90.0000
_cell_angle_beta                  90.0000
_cell_angle_gamma                 90.0000
loop_
_atom_site_label
_atom_site_type_symbol
_atom_site_fract_x
_atom_site_fract_y
_atom_site_fract_z
_atom_site_U_iso_or_equiv
_atom_site_adp_type
_atom_site_occupancy
Zr1    Zr    0.00098  -0.25354   0.00940   0.00000  Uiso   1.00
O2     O     0.06724  -0.24895   0.26229   0.00000  Uiso   1.00
O3     O     0.24668  -0.21724   0.23823   0.00000  Uiso   1.00
Zr4    Zr   -0.00074  -0.25395   0.51421   0.00000  Uiso   1.00
O5     O     0.06914  -0.22194   0.76073   0.00000  Uiso   1.00
O6     O     0.23748  -0.26098   0.73568   0.00000  Uiso   1.00
Zr7    Zr    0.33209  -0.24492  -0.01275   0.00000  Uiso   1.00
O8     O     0.40820  -0.26059   0.23468   0.00000  Uiso   1.00
O9     O     0.57409  -0.25274   0.26238   0.00000  Uiso   1.00
Zr10   Zr    0.33382  -0.23965   0.48618   0.00000  Uiso   1.00
O11    O     0.40644  -0.23480   0.73771   0.00000  Uiso   1.00
O12    O     0.57148  -0.27541   0.71016   0.00000  Uiso   1.00
Zr13   Zr    0.66891  -0.25219   0.01387   0.00000  Uiso   1.00
O14    O     0.73778  -0.28018   0.25676   0.00000  Uiso   1.00
O15    O     0.90332  -0.24202   0.26116   0.00000  Uiso   1.00
Zr16   Zr    0.66966  -0.23127   0.50520   0.00000  Uiso   1.00
O17    O     0.73245  -0.23957   0.76082   0.00000  Uiso   1.00
O18    O     0.90976  -0.28534   0.76343   0.00000  Uiso   1.00
Zr19   Zr    0.16106   0.00000   0.26348   0.00000  Uiso   1.00
O20    O     0.09985   0.00000   0.01683   0.00000  Uiso   1.00
O21    O     0.26758   0.00000  -0.04419   0.00000  Uiso   1.00
Zr22   Zr    0.16216   0.00000   0.75781   0.00000  Uiso   1.00
O23    O     0.09548   0.00000   0.50266   0.00000  Uiso   1.00
O24    O     0.26384   0.00000   0.51549   0.00000  Uiso   1.00
Zr25   Zr    0.50083   0.00000   0.23821   0.00000  Uiso   1.00
O26    O     0.43044   0.00000  -0.00211   0.00000  Uiso   1.00
O27    O     0.59231   0.00000  -0.02747   0.00000  Uiso   1.00
Zr28   Zr    0.49810   0.00000   0.73540   0.00000  Uiso   1.00
O29    O     0.42811   0.00000   0.47579   0.00000  Uiso   1.00
O30    O     0.59034   0.00000   0.50767   0.00000  Uiso   1.00
Zr31   Zr    0.84046   0.00000   0.25644   0.00000  Uiso   1.00
O32    O     0.75207   0.00000   0.04484   0.00000  Uiso   1.00
O33    O     0.93411   0.00000   0.01473   0.00000  Uiso   1.00
Y34    Y     0.83606   0.00000   0.76605   0.00000  Uiso   1.00
O35    O     0.75247   0.00000   0.48191   0.00000  Uiso   1.00
O36    O     0.93215   0.00000   0.51112   0.00000  Uiso   1.00
Y37    Y     0.16899   0.50000   0.25661   0.00000  Uiso   1.00
O38    O     0.08924   0.50000  -0.02045   0.00000  Uiso   1.00
O39    O     0.26618   0.50000  -0.00844   0.00000  Uiso   1.00
Zr40   Zr    0.17053   0.50000   0.75890   0.00000  Uiso   1.00
O41    O     0.08606   0.50000   0.53791   0.00000  Uiso   1.00
O42    O     0.28012   0.50000   0.48595   0.00000  Uiso   1.00
Zr43   Zr    0.49371   0.50000   0.22128   0.00000  Uiso   1.00
O44    O     0.42416   0.50000  -0.01950   0.00000  Uiso   1.00
O45    O     0.59167   0.50000   0.00594   0.00000  Uiso   1.00
Zr46   Zr    0.49551   0.50000   0.74819   0.00000  Uiso   1.00
O47    O     0.45271   0.50000   0.48860   0.00000  Uiso   1.00
Zr48   Zr    0.83680   0.50000   0.24367   0.00000  Uiso   1.00
O49    O     0.76067   0.50000  -0.00984   0.00000  Uiso   1.00
O50    O     0.93070   0.50000   0.04209   0.00000  Uiso   1.00
Zr51   Zr    0.82584   0.50000   0.73955   0.00000  Uiso   1.00
O52    O     0.73406   0.50000   0.52792   0.00000  Uiso   1.00
O53    O     0.91878   0.50000   0.48666   0.00000  Uiso   1.00
loop_
_geom_bond_atom_site_label_1
_geom_bond_atom_site_label_2
_geom_bond_distance
_geom_bond_site_symmetry_2
_ccdc_geom_bond_type
Zr1    O2      2.095   .     S
Zr1    O5      2.095   1_554 S
Zr1    O33     2.104   1_455 S
Zr1    O50     2.099   1_445 S
Zr1    O15     2.366   1_455 S
Zr1    O18     2.280   1_454 S
Zr1    O20     2.387   .     S
Zr1    O38     2.254   1_545 S
O2     Zr4     2.102   .     S
O2     Zr19    2.311   .     S
O2     Y37     2.402   1_545 S
O3     Zr19    2.061   .     S
O3     Y37     2.373   1_545 S
O3     Zr10    2.247   .     S
O3     Zr7     2.252   .     S
Zr4    O5      2.096   .     S
Zr4    O36     2.108   1_455 S
Zr4    O53     2.179   1_445 S
Zr4    O18     2.282   1_455 S
Zr4    O15     2.356   1_455 S
Zr4    O23     2.364   .     S
Zr4    O41     2.234   1_545 S
O5     Zr1     2.095   1_556 S
O5     Zr22    2.154   .     S
O5     Zr40    2.548   1_545 S
O6     Zr22    2.222   .     S
O6     Zr40    2.020   1_545 S
O6     Zr7     2.336   1_556 S
O6     Zr10    2.344   .     S
Zr7    O8      2.143   .     S
Zr7    O11     2.139   1_554 S
Zr7    O21     2.044   .     S
Zr7    O39     2.106   1_545 S
Zr7    O6      2.336   1_554 S
Zr7    O26     2.335   .     S
Zr7    O44     2.329   1_545 S
O8     Zr10    2.155   .     S
O8     Zr25    2.366   .     S
O8     Zr43    2.179   1_545 S
O9     Zr25    2.156   .     S
O9     Zr43    2.196   1_545 S
O9     Zr16    2.299   .     S
O9     Zr13    2.318   .     S
Zr10   O11     2.136   .     S
Zr10   O24     2.052   .     S
Zr10   O42     2.056   1_545 S
Zr10   O29     2.265   .     S
Zr10   O47     2.630   1_545 S
O11    Zr7     2.139   1_556 S
O11    Zr28    2.211   .     S
O11    Zr46    2.361   1_545 S
O12    Zr28    2.297   .     S
O12    Zr46    2.022   1_545 S
O12    Zr13    2.667   1_556 S
O12    Zr16    2.145   .     S
Zr13   O14     2.062   .     S
Zr13   O17     2.077   1_554 S
Zr13   O27     2.193   .     S
Zr13   O45     2.153   1_545 S
Zr13   O12     2.667   1_554 S
Zr13   O32     2.241   .     S
Zr13   O49     2.291   1_545 S
O14    Zr16    2.111   .     S
O14    Zr31    2.573   .     S
O14    Zr48    2.208   1_545 S
O15    Zr31    2.001   .     S
O15    Zr48    2.132   1_545 S
O15    Zr4     2.356   1_655 S
O15    Zr1     2.366   1_655 S
Zr16   O17     2.087   .     S
Zr16   O30     2.073   .     S
Zr16   O35     2.112   .     S
Zr16   O52     2.188   1_545 S
O17    Zr13    2.077   1_556 S
O17    Y34     2.359   .     S
O17    Zr51    2.377   1_545 S
O18    Y34     2.355   .     S
O18    Zr51    2.030   1_545 S
O18    Zr1     2.280   1_656 S
O18    Zr4     2.282   1_655 S
Zr19   O3      2.061   2     S
Zr19   O23     2.003   .     S
Zr19   O20     2.017   .     S
Zr19   O2      2.311   2     S
Zr19   O24     2.417   .     S
Zr19   O21     2.767   .     S
O20    Zr22    2.105   1_554 S
O20    Zr1     2.387   2     S
O21    Zr7     2.044   2     S
O21    Zr22    2.169   1_554 S
Zr22   O6      2.222   2     S
Zr22   O20     2.105   1_556 S
Zr22   O23     2.112   .     S
Zr22   O5      2.154   2     S
Zr22   O21     2.169   1_556 S
Zr22   O24     2.353   .     S
O23    Zr4     2.364   2     S
O24    Zr10    2.052   2     S
Zr25   O9      2.156   2     S
Zr25   O29     2.052   .     S
Zr25   O26     2.049   .     S
Zr25   O8      2.366   2     S
Zr25   O30     2.389   .     S
Zr25   O27     2.384   .     S
O26    Zr28    2.166   1_554 S
O26    Zr7     2.335   2     S
O27    Zr13    2.193   2     S
O27    Zr28    2.249   1_554 S
Zr28   O12     2.297   2     S
Zr28   O26     2.166   1_556 S
Zr28   O29     2.165   .     S
Zr28   O11     2.211   2     S
Zr28   O27     2.249   1_556 S
Zr28   O30     2.178   .     S
O29    Zr10    2.265   2     S
O30    Zr16    2.073   2     S
Zr31   O15     2.001   2     S
Zr31   O35     2.123   .     S
Zr31   O32     2.051   .     S
Zr31   O14     2.573   2     S
Zr31   O36     2.323   .     S
Zr31   O33     2.269   .     S
O32    Y34     2.396   1_554 S
O32    Zr13    2.241   2     S
O33    Zr1     2.104   1_655 S
O33    Zr1     2.104   2_655 S
O33    Y34     2.351   1_554 S
Y34    O18     2.355   2     S
Y34    O32     2.396   1_556 S
Y34    O35     2.426   .     S
Y34    O17     2.359   2     S
Y34    O33     2.351   1_556 S
Y34    O36     2.366   .     S
O35    Zr16    2.112   2     S
O36    Zr4     2.108   1_655 S
O36    Zr4     2.108   2_655 S
Y37    O3      2.373   2     S
Y37    O3      2.373   1_565 S
Y37    O41     2.403   .     S
Y37    O38     2.351   .     S
Y37    O2      2.402   2     S
Y37    O2      2.402   1_565 S
Y37    O42     2.387   .     S
Y37    O39     2.434   .     S
O38    Zr40    2.030   1_554 S
O38    Zr1     2.254   2     S
O38    Zr1     2.254   1_565 S
O39    Zr7     2.106   2     S
O39    Zr7     2.106   1_565 S
O39    Zr40    2.239   1_554 S
Zr40   O6      2.020   2     S
Zr40   O6      2.020   1_565 S
Zr40   O38     2.030   1_556 S
Zr40   O41     2.063   .     S
Zr40   O5      2.548   2     S
Zr40   O5      2.548   1_565 S
Zr40   O39     2.239   1_556 S
Zr40   O42     2.600   .     S
O41    Zr4     2.234   2     S
O41    Zr4     2.234   1_565 S
O42    Zr10    2.056   2     S
O42    Zr10    2.056   1_565 S
Zr43   O9      2.196   2     S
Zr43   O9      2.196   1_565 S
Zr43   O47     2.032   .     S
Zr43   O44     2.045   .     S
Zr43   O8      2.179   2     S
Zr43   O8      2.179   1_565 S
Zr43   O45     2.172   .     S
O44    Zr46    2.008   1_554 S
O44    Zr7     2.329   2     S
O44    Zr7     2.329   1_565 S
O45    Zr13    2.153   2     S
O45    Zr13    2.153   1_565 S
O45    Zr46    2.383   1_554 S
Zr46   O12     2.022   2     S
Zr46   O12     2.022   1_565 S
Zr46   O44     2.008   1_556 S
Zr46   O47     1.988   .     S
Zr46   O11     2.361   2     S
Zr46   O11     2.361   1_565 S
Zr46   O45     2.383   1_556 S
O47    Zr10    2.630   2     S
O47    Zr10    2.630   1_565 S
Zr48   O15     2.132   2     S
Zr48   O15     2.132   1_565 S
Zr48   O52     2.596   .     S
Zr48   O49     2.177   .     S
Zr48   O14     2.208   2     S
Zr48   O14     2.208   1_565 S
Zr48   O53     2.165   .     S
Zr48   O50     2.057   .     S
O49    Zr51    2.072   1_554 S
O49    Zr13    2.291   2     S
O49    Zr13    2.291   1_565 S
O50    Zr1     2.099   2_655 S
O50    Zr1     2.099   1_665 S
O50    Zr51    2.721   1_554 S
Zr51   O18     2.030   2     S
Zr51   O18     2.030   1_565 S
Zr51   O49     2.072   1_556 S
Zr51   O52     2.086   .     S
Zr51   O17     2.377   2     S
Zr51   O17     2.377   1_565 S
Zr51   O50     2.721   1_556 S
Zr51   O53     2.325   .     S
O52    Zr16    2.188   2     S
O52    Zr16    2.188   1_565 S
O53    Zr4     2.179   2_655 S
O53    Zr4     2.179   1_665 S
