data_t-YSZ-25%-Vo4-lattice
_audit_creation_date              2022-06-18
_audit_creation_method            'Materials Studio'
_symmetry_space_group_name_H-M    'PM'
_symmetry_Int_Tables_number       6
_symmetry_cell_setting            monoclinic
loop_
_symmetry_equiv_pos_as_xyz
  x,y,z
  x,-y,z
_cell_length_a                    7.2400
_cell_length_b                    7.2400
_cell_length_c                    15.3791
_cell_angle_alpha                 90.0000
_cell_angle_beta                  90.0000
_cell_angle_gamma                 90.0000
loop_
_atom_site_label
_atom_site_type_symbol
_atom_site_fract_x
_atom_site_fract_y
_atom_site_fract_z
_atom_site_U_iso_or_equiv
_atom_site_adp_type
_atom_site_occupancy
Zr1    Zr   -0.06309  -0.24885  -0.01428   0.00000  Uiso   1.00
O2     O     0.19926  -0.24264   0.10837   0.00000  Uiso   1.00
O3     O     0.32292  -0.27690   0.28090   0.00000  Uiso   1.00
Zr4    Zr    0.46026  -0.24765   0.02573   0.00000  Uiso   1.00
O5     O     0.73325  -0.29287   0.09999   0.00000  Uiso   1.00
O6     O     0.72612  -0.23263   0.28195   0.00000  Uiso   1.00
Zr7    Zr    0.05985  -0.25815   0.32020   0.00000  Uiso   1.00
O8     O     0.23636  -0.27877   0.44273   0.00000  Uiso   1.00
O9     O     0.30353  -0.31746   0.60363   0.00000  Uiso   1.00
Zr10   Zr    0.52613  -0.25372   0.37213   0.00000  Uiso   1.00
O11    O     0.79103  -0.22568   0.44882   0.00000  Uiso   1.00
O12    O     0.73249  -0.25204   0.61131   0.00000  Uiso   1.00
Zr13   Zr    0.00189  -0.25435   0.65257   0.00000  Uiso   1.00
O14    O     0.24302  -0.20736   0.76005   0.00000  Uiso   1.00
O15    O     0.24499  -0.26198   0.94071   0.00000  Uiso   1.00
Zr16   Zr    0.51479  -0.25269   0.68873   0.00000  Uiso   1.00
O17    O     0.78753  -0.25571   0.77418   0.00000  Uiso   1.00
O18    O     0.67208  -0.20873   0.94140   0.00000  Uiso   1.00
Al19   Al    0.17390   0.00000   0.13056   0.00000  Uiso   1.00
O20    O    -0.03769   0.00000   0.05392   0.00000  Uiso   1.00
O21    O     0.04810   0.00000   0.22972   0.00000  Uiso   1.00
Y22    Y     0.74014   0.00000   0.17671   0.00000  Uiso   1.00
O23    O     0.45099   0.00000   0.09238   0.00000  Uiso   1.00
Al24   Al    0.23058   0.00000   0.46896   0.00000  Uiso   1.00
O25    O     0.04821   0.00000   0.38784   0.00000  Uiso   1.00
O26    O     0.05154   0.00000   0.55412   0.00000  Uiso   1.00
Al27   Al    0.86457   0.00000   0.47317   0.00000  Uiso   1.00
O28    O     0.46564   0.00000   0.42847   0.00000  Uiso   1.00
Al29   Al    0.15941   0.00000   0.80350   0.00000  Uiso   1.00
O30    O    -0.02609   0.00000   0.71492   0.00000  Uiso   1.00
O31    O    -0.02302   0.00000   0.88243   0.00000  Uiso   1.00
Al32   Al    0.78418   0.00000   0.80111   0.00000  Uiso   1.00
O33    O     0.55703   0.00000   0.74377   0.00000  Uiso   1.00
Al34   Al    0.19214   0.50000   0.12771   0.00000  Uiso   1.00
O35    O    -0.00541   0.50000   0.05081   0.00000  Uiso   1.00
O36    O     0.01797   0.50000   0.21514   0.00000  Uiso   1.00
Al37   Al    0.82135   0.50000   0.14304   0.00000  Uiso   1.00
O38    O     0.42452   0.50000   0.07911   0.00000  Uiso   1.00
Al39   Al    0.24035   0.50000   0.51767   0.00000  Uiso   1.00
O40    O    -0.03605   0.50000   0.37354   0.00000  Uiso   1.00
O41    O    -0.00610   0.50000   0.55226   0.00000  Uiso   1.00
Al42   Al    0.81953   0.50000   0.46842   0.00000  Uiso   1.00
O43    O     0.56720   0.50000   0.43832   0.00000  Uiso   1.00
Y44    Y     0.23151   0.50000   0.83596   0.00000  Uiso   1.00
O45    O     0.00737   0.50000   0.72055   0.00000  Uiso   1.00
O46    O    -0.07512   0.50000   0.89580   0.00000  Uiso   1.00
Al47   Al    0.79593   0.50000   0.79794   0.00000  Uiso   1.00
O48    O     0.53243   0.50000   0.75970   0.00000  Uiso   1.00
loop_
_geom_bond_atom_site_label_1
_geom_bond_atom_site_label_2
_geom_bond_distance
_geom_bond_site_symmetry_2
_ccdc_geom_bond_type
Zr1    O20     2.093   .     S
Zr1    O35     2.117   1_545 S
Zr1    O15     2.337   1_554 S
Zr1    O18     2.056   1_454 S
Zr1    O31     2.419   1_554 S
Zr1    O46     2.286   1_544 S
Zr1    O2      2.677   .     S
Zr1    O5      2.316   1_455 S
O2     Al34    1.888   1_545 S
O2     Al19    1.799   .     S
O2     Zr4     2.278   .     S
O3     Zr7     2.003   .     S
O3     Zr10    2.040   .     S
O3     Al19    3.245   .     S
O3     Al34    3.009   1_545 S
Zr4    O23     2.066   .     S
Zr4    O38     2.020   1_545 S
Zr4    O18     2.028   1_554 S
Zr4    O15     2.037   1_554 S
Zr4    O5      2.306   .     S
O5     Al37    1.759   1_545 S
O5     Y22     2.427   .     S
O5     Zr1     2.316   1_655 S
O6     Zr10    2.011   .     S
O6     Zr7     2.494   1_655 S
O6     Y22     2.338   .     S
O6     Al37    2.964   1_545 S
Zr7    O25     2.141   .     S
Zr7    O40     2.054   1_545 S
Zr7    O6      2.494   1_455 S
Zr7    O21     2.332   .     S
Zr7    O36     2.402   1_545 S
Zr7    O8      2.282   .     S
Zr7    O11     2.785   1_455 S
O8     Al39    1.973   1_545 S
O8     Al24    2.059   .     S
O8     Zr10    2.369   .     S
O9     Zr13    2.355   .     S
O9     Zr16    2.067   .     S
O9     Al24    3.139   .     S
O9     Al39    1.924   1_545 S
Zr10   O28     2.078   .     S
Zr10   O43     2.075   1_545 S
Zr10   O11     2.261   .     S
O11    Al42    2.019   1_545 S
O11    Al27    1.759   .     S
O11    Zr7     2.785   1_655 S
O12    Zr16    1.975   .     S
O12    Zr13    2.051   1_655 S
O12    Al27    2.959   .     S
O12    Al42    2.907   1_545 S
Zr13   O30     2.086   .     S
Zr13   O45     2.063   1_545 S
Zr13   O12     2.051   1_455 S
Zr13   O26     2.411   .     S
Zr13   O41     2.355   1_545 S
Zr13   O14     2.428   .     S
Zr13   O17     2.430   1_455 S
O14    Y44     2.421   1_545 S
O14    Al29    1.751   .     S
O14    Zr16    2.276   .     S
O15    Zr1     2.337   1_556 S
O15    Zr4     2.037   1_556 S
O15    Al29    2.904   .     S
O15    Y44     2.361   1_545 S
Zr16   O33     2.039   .     S
Zr16   O48     2.101   1_545 S
Zr16   O17     2.372   .     S
O17    Al47    1.807   1_545 S
O17    Al32    1.897   .     S
O17    Zr13    2.430   1_655 S
O18    Zr4     2.028   1_556 S
O18    Zr1     2.056   1_656 S
O18    Al32    2.756   .     S
O18    Al47    3.181   1_545 S
Al19   O21     1.776   .     S
Al19   O2      1.799   2     S
Al19   O20     1.933   .     S
Al19   O23     2.090   .     S
Al19   O3      3.245   2     S
O20    Zr1     2.093   2     S
O20    Y22     2.481   1_455 S
O21    Y22     2.374   1_455 S
O21    Zr7     2.332   2     S
Y22    O21     2.374   1_655 S
Y22    O5      2.427   2     S
Y22    O23     2.463   .     S
Y22    O20     2.481   1_655 S
Y22    O6      2.338   2     S
O23    Zr4     2.066   2     S
Al24   O26     1.843   .     S
Al24   O8      2.059   2     S
Al24   O25     1.817   .     S
Al24   O28     1.812   .     S
Al24   O9      3.139   2     S
O25    Zr7     2.141   2     S
O25    Al27    1.868   1_455 S
O26    Al27    1.839   1_455 S
O26    Zr13    2.411   2     S
Al27   O26     1.839   1_655 S
Al27   O11     1.759   2     S
Al27   O28     2.969   .     S
Al27   O25     1.868   1_655 S
Al27   O12     2.959   2     S
O28    Zr10    2.078   2     S
Al29   O31     1.794   .     S
Al29   O14     1.751   2     S
Al29   O30     1.913   .     S
Al29   O33     3.022   .     S
Al29   O15     2.904   2     S
O30    Zr13    2.086   2     S
O30    Al32    1.909   1_455 S
O31    Al32    1.874   1_455 S
O31    Zr1     2.419   2_556 S
O31    Zr1     2.419   1_556 S
Al32   O31     1.874   1_655 S
Al32   O17     1.897   2     S
Al32   O33     1.866   .     S
Al32   O30     1.909   1_655 S
Al32   O18     2.756   2     S
O33    Zr16    2.039   2     S
Al34   O36     1.843   .     S
Al34   O2      1.888   1_565 S
Al34   O2      1.888   2     S
Al34   O35     1.856   .     S
Al34   O38     1.841   .     S
Al34   O3      3.009   1_565 S
Al34   O3      3.009   2     S
O35    Zr1     2.117   2     S
O35    Zr1     2.117   1_565 S
O35    Al37    1.893   1_455 S
O36    Al37    1.804   1_455 S
O36    Zr7     2.402   1_565 S
O36    Zr7     2.402   2     S
Al37   O36     1.804   1_655 S
Al37   O5      1.759   1_565 S
Al37   O5      1.759   2     S
Al37   O38     3.037   .     S
Al37   O35     1.893   1_655 S
Al37   O6      2.964   1_565 S
Al37   O6      2.964   2     S
O38    Zr4     2.020   2     S
O38    Zr4     2.020   1_565 S
Al39   O41     1.862   .     S
Al39   O8      1.973   1_565 S
Al39   O8      1.973   2     S
Al39   O40     2.986   .     S
Al39   O43     2.663   .     S
Al39   O9      1.924   1_565 S
Al39   O9      1.924   2     S
O40    Zr7     2.054   2     S
O40    Zr7     2.054   1_565 S
O40    Al42    1.795   1_455 S
O41    Al42    1.805   1_455 S
O41    Zr13    2.355   1_565 S
O41    Zr13    2.355   2     S
Al42   O41     1.805   1_655 S
Al42   O11     2.019   1_565 S
Al42   O11     2.019   2     S
Al42   O43     1.885   .     S
Al42   O40     1.795   1_655 S
Al42   O12     2.907   1_565 S
Al42   O12     2.907   2     S
O43    Zr10    2.075   2     S
O43    Zr10    2.075   1_565 S
Y44    O46     2.403   .     S
Y44    O14     2.421   1_565 S
Y44    O14     2.421   2     S
Y44    O45     2.405   .     S
Y44    O48     2.474   .     S
Y44    O15     2.361   1_565 S
Y44    O15     2.361   2     S
O45    Zr13    2.063   2     S
O45    Zr13    2.063   1_565 S
O45    Al47    1.939   1_455 S
O46    Al47    1.771   1_455 S
O46    Zr1     2.286   1_566 S
O46    Zr1     2.286   2_556 S
Al47   O46     1.771   1_655 S
Al47   O17     1.807   1_565 S
Al47   O17     1.807   2     S
Al47   O48     1.996   .     S
Al47   O45     1.939   1_655 S
Al47   O18     3.181   1_565 S
Al47   O18     3.181   2     S
O48    Zr16    2.101   2     S
O48    Zr16    2.101   1_565 S
